     270
 i =    17889, time =    17889.000, E =     -3250.5267131505
 Si         6.3365484839       -4.4827652668       -6.1872536238
 Si        -6.8848946196       -0.5829364293       -2.2587320808
 Si        -6.3647569524       -3.4030884419       -1.5265577759
 Si        -6.9951030468       -3.0005589267        2.9039052704
 Si        -6.4908017134       -4.3867316829       -5.7944858921
 Si         5.2001325009       -6.0442454550        4.5209194615
 Si        -6.6323348161       -3.1597775641        5.9669356909
 Si        -5.1181346622       -1.4639852593       -6.0600252557
 Si        -8.2626037147        6.5305451468       -5.7120561010
 Si        -5.8295365555        3.7946738617       -0.9172258724
 Si        -8.0350499062       -5.9064348742       -0.4455931264
 Si        -8.6667061069        8.5987944037        6.4600758060
 Si        -4.0294037486       -0.1586271618       -3.2826310129
 Si        -2.2262144335       -1.0149312040       -7.1565136013
 Si        -2.3301361918       -5.3316206521       -5.3721627642
 Si        -3.6310357297        0.7684690452        0.9115469702
 Si        -3.1163263182        8.6502544618       -3.3634435647
 Si        -4.6866846114       -4.9011900056       -3.5302378637
 Si        -4.8713423828       -2.2811849102        0.9473802595
 Si        -2.1901766812        8.1565936206        1.6668065020
 Si        -4.0018005929       -5.9000659385        3.2913426757
 Si        -6.9504219544       -5.8829752842        2.3229277754
 Si        -7.2012782546       -0.0698338093        3.0114028532
 Si        -4.8577601908       -0.6254000410        5.1644211808
 Si         0.2587207872       -2.9297902706        6.2499705252
 Si        -6.0916832694       -5.8054471865        7.3917385497
 Si        -8.1746243009        1.0204964842       -4.7998061483
 Si        -4.6484082750        5.6723379181        5.9589630793
 Si        -6.0777905193        2.5630781474       -6.5557442206
 Si        -5.7581835934        5.5770528189       -6.9530412757
 Si        -2.8052916530        2.0754744914       -6.9659372013
 Si        -6.4616608306        0.3598801143        7.4870203490
 Si        -3.4712152918        2.3845112133       -1.8807039631
 Si        -1.2290078343        7.5376334961       -1.2023848374
 Si        -1.3994914230        4.3594690328       -0.6820359633
 Si        -6.7964696191        4.8612611469        3.7785184258
 Si        -3.7693545060        8.5682727700        6.0712337511
 Si        -4.7431137982        3.6197759587        1.8963794045
 Si        -2.5762150449        4.1610127507        4.1865007467
 Si         6.9998324828        0.8653640269        5.4975429658
 Si         2.0824278883        0.3067201571       -5.1526578833
 Si         0.8994203424        2.6355817935       -4.1628591028
 Si         4.6834871263       -2.3839122731       -4.8311207676
 Si         2.0786486316       -4.2642782666       -5.3877473739
 Si        -1.3702972157       -1.0758157688       -1.9575262757
 Si        -1.3254172157       -0.9239562094        1.2797256839
 Si         0.2982411496        1.7234321913       -1.4510880911
 Si        -7.6570283776        1.3880262829        0.2563005271
 Si         3.0306016352       -1.5032370678       -2.6174678382
 Si        -2.5206104350       -3.6367466984        1.7361003382
 Si         0.8398871871       -3.5228576309       -2.5518249521
 Si         3.6324798073       -0.5912970981        0.3264777021
 Si         1.1039469639       -6.3216101551       -0.9548678227
 Si         2.4514075464        1.6160131535        3.8454165409
 Si         3.8174883314       -3.1746768669        2.1040060404
 Si         1.5380509480       -4.6730063389        3.9276208148
 Si         1.8182080032       -0.5180223910        7.7980304345
 Si        -0.3721843919       -3.4109416998        8.9709377115
 Si         3.9572427120       -0.3494187103        5.6020919362
 Si        -1.9338610464       -0.8057323852        5.6597419140
 Si        -0.3409910125       -5.5407849253        1.6839679404
 Si        -3.3870806208        6.4692060254       -5.3682630843
 Si         3.6086756527        3.1097041967       -4.9110185357
 Si        -1.1843323635        4.4847358775       -5.4513321623
